ucte/ucte-util/src/test/resources/aliasesDuplicationTest.uct
##C 2007.05.01
Generated by powsybl, 2019.09.23 17:47
Case date: 2019.09.24 19:30
##N
##ZFR
FFFFFF11              0 0        3.96708 0.00000 0.00000 0.00000
FFFFFF12              0 0        3.96708 0.00000 0.00000 0.00000
##L
FFFFFF11 FFFFFF12 1 1 0.0000 0.2000 0.000000   5051 N/A
FFFFFF11 FFFFFF12 2 1 0.0000 0.2000 0.000000   5051 N/A
FFFFFF11 FFFFFF12 3 1 0.0000 0.2000 0.000000   5051 Unique
##T
##R